data_CONTCAR_5F003

_audit_creation_date               2024-07-25
_audit_creation_method             'generated by MedeA 3.8.1'

_chemical_formula_sum              'HF29Li5P5'

_symmetry_space_group_name_H-M     'P1'
_symmetry_Int_Tables_number        1

_cell_length_a                     5.18294
_cell_length_b                     5.18294
_cell_length_c                     29.91170
_cell_angle_alpha                  90.00
_cell_angle_beta                   90.00
_cell_angle_gamma                  90.00
_cell_volume                       803.51
_cell_formula_units_Z              1

loop_
_atom_site_label
_atom_site_symmetry_multiplicity
_atom_site_Wyckoff_symbol
_atom_site_fract_x
_atom_site_fract_y
_atom_site_fract_z
_atom_site_occupancy
Li1      1 a   0.00008  -0.00010   0.37453 1.0
Li2      1 a   0.00005  -0.00001   0.62445 1.0
Li3      1 a   0.50009   0.49988   0.25598 1.0
Li4      1 a   0.50100   0.49860   0.74456 1.0
Li5      1 a   0.50002   0.49990   0.49943 1.0
F1       1 a   0.76730   0.76701   0.24583 1.0
F2       1 a   0.76845   0.23338   0.75218 1.0
F3       1 a   0.22994   0.77136   0.74938 1.0
F4       1 a   0.23299   0.23270   0.24582 1.0
F5       1 a   0.23042   0.23266   0.75161 1.0
F6       1 a   0.23297   0.76704   0.24582 1.0
F7       1 a   0.76726   0.23274   0.24583 1.0
F8       1 a   0.76888   0.77151   0.75025 1.0
F9       1 a   0.77726   0.77713   0.50005 1.0
F10      1 a   0.77718   0.22275   0.50006 1.0
F11      1 a   0.22275   0.77714   0.50002 1.0
F12      1 a   0.22280   0.22264   0.50002 1.0
F13      1 a   0.00010  -0.00011   0.30112 1.0
F14      1 a  -0.00305   0.00996   0.69489 1.0
F15      1 a   0.00003  -0.00012   0.55465 1.0
F16      1 a  -0.00052  -0.00012   0.44541 1.0
F17      1 a   0.27703   0.27683   0.37614 1.0
F18      1 a   0.27708   0.72293   0.62392 1.0
F19      1 a   0.72302   0.27698   0.62389 1.0
F20      1 a   0.72311   0.72288   0.37611 1.0
F21      1 a   0.72306   0.72295   0.62392 1.0
F22      1 a   0.72312   0.27687   0.37611 1.0
F23      1 a   0.27703   0.72297   0.37613 1.0
F24      1 a   0.27710   0.27699   0.62390 1.0
F25      1 a   0.50013   0.49987   0.43065 1.0
F26      1 a   0.50010   0.49994   0.56933 1.0
F27      1 a   0.50013   0.49976   0.67832 1.0
F28      1 a   0.49986   0.49991   0.32175 1.0
F29      1 a   0.48485   0.52285   0.81937 1.0
P1       1 a   0.00011  -0.00011   0.24671 1.0
P2       1 a  -0.00016   0.00155   0.74917 1.0
P3       1 a  -0.00006  -0.00008   0.49999 1.0
P4       1 a   0.50001   0.49994   0.37608 1.0
P5       1 a   0.50007   0.49990   0.62368 1.0
H1       1 a   0.50655   0.51246   0.85033 1.0
