data_surface_Li4PF4_Exposed_rpt.cif

_audit_creation_date               2024-07-02
_audit_creation_method             'generated by MedeA 3.8.1'

_chemical_formula_sum              'HF29Li5P5'

_symmetry_space_group_name_H-M     'P1'
_symmetry_Int_Tables_number        1

_cell_length_a                     5.17943
_cell_length_b                     5.17943
_cell_length_c                     32.58680
_cell_angle_alpha                  90.00
_cell_angle_beta                   90.00
_cell_angle_gamma                  90.00
_cell_volume                       874.19
_cell_formula_units_Z              1

loop_
_atom_site_label
_atom_site_symmetry_multiplicity
_atom_site_Wyckoff_symbol
_atom_site_fract_x
_atom_site_fract_y
_atom_site_fract_z
_atom_site_occupancy
Li1      1 a   0.00000   0.00000   0.27587 1.0
Li2      1 a   0.00000   0.00000   0.72413 1.0
Li3      1 a   0.00000   0.00000   0.50000 1.0
Li4      1 a   0.50000   0.50000   0.38554 1.0
Li5      1 a   0.50000   0.50000   0.61446 1.0
F1       1 a   0.77675   0.77675   0.38650 1.0
F2       1 a   0.77675   0.22325   0.61350 1.0
F3       1 a   0.22325   0.77675   0.61350 1.0
F4       1 a   0.22325   0.22325   0.38650 1.0
F5       1 a   0.22325   0.22325   0.61350 1.0
F6       1 a   0.22325   0.77675   0.38650 1.0
F7       1 a   0.77675   0.22325   0.38650 1.0
F8       1 a   0.77675   0.77675   0.61350 1.0
F9       1 a   0.00000   0.00000   0.43659 1.0
F10      1 a   0.00000   0.00000   0.56341 1.0
F11      1 a   0.00000   0.00000   0.66339 1.0
F12      1 a   0.00000   0.00000   0.33661 1.0
F13      1 a   0.26755   0.26755   0.26703 1.0
F14      1 a   0.26755   0.73245   0.73297 1.0
F15      1 a   0.73245   0.26755   0.73297 1.0
F16      1 a   0.73245   0.73245   0.26703 1.0
F17      1 a   0.73245   0.73245   0.73297 1.0
F18      1 a   0.73245   0.26755   0.26703 1.0
F19      1 a   0.26755   0.73245   0.26703 1.0
F20      1 a   0.26755   0.26755   0.73297 1.0
F21      1 a   0.27690   0.27690   0.50000 1.0
F22      1 a   0.27690   0.72310   0.50000 1.0
F23      1 a   0.72310   0.27690   0.50000 1.0
F24      1 a   0.72310   0.72310   0.50000 1.0
F25      1 a   0.50000   0.50000   0.31797 1.0
F26      1 a   0.50000   0.50000   0.68203 1.0
F27      1 a   0.50000   0.50000   0.55009 1.0
F28      1 a   0.50000   0.50000   0.44991 1.0
P1       1 a   0.00000   0.00000   0.38658 1.0
P2       1 a   0.00000   0.00000   0.61342 1.0
P3       1 a   0.50000   0.50000   0.26822 1.0
P4       1 a   0.50000   0.50000   0.73178 1.0
P5       1 a   0.50000   0.50000   0.50000 1.0
H        1 a   0.50392   0.54343   0.79436 1.0
F29      1 a   0.49534   0.50711   0.76620 1.0
